*Heading
** Job name: Job-3 Model name: Model-1
*Preprint, echo=NO, model=NO, history=NO, contact=NO
**
** PARTS
**
*Part, name=Steel
*End Part
**  
**
** ASSEMBLY
**
*Assembly, name=Assembly
**  
*Instance, name=Steel-1, part=Steel
       0.002,           0.,      -0.0025
*Node
      1, -0.00400000019,  0.100000001, 0.00499999989
      2, -0.00400000019,           0., 0.00499999989
      3,           0.,           0., 0.00499999989
      4,           0.,  0.100000001, 0.00499999989
      5, -0.00400000019,           0.,           0.
      6,           0.,           0.,           0.
      7,           0.,  0.100000001,           0.
      8, -0.00400000019,  0.100000001,           0.
      9, -0.075000003,           0., 0.00499999989
     10, -0.075000003,           0.,           0.
     11, -0.075000003,  0.100000001, 0.00499999989
     12, -0.075000003,  0.100000001,           0.
     13,           0., -0.0371885933, 0.00499999989
     14,  0.075000003, -0.0372925028, 0.00499999989
     15, 0.0752320662,  0.130207494, 0.00499999989
     16,           0.,  0.130311728, 0.00499999989
     17,  0.075000003, -0.0372925028,           0.
     18, 0.0752320662,  0.130207494,           0.
     19,           0.,  0.130311728,           0.
     20,           0., -0.0371885933,           0.
** ... 7420 like lines cut
*Element, type=DC3D8
  1,  194,  763, 3697,  745,    1,   21,  511,  104
  2,  763,  764, 3698, 3697,   21,   22,  512,  511
  3,  764,  765, 3699, 3698,   22,   23,  513,  512
  4,  765,  766, 3700, 3699,   23,   24,  514,  513
  5,  766,  767, 3701, 3700,   24,   25,  515,  514
  6,  767,  768, 3702, 3701,   25,   26,  516,  515
  7,  768,  769, 3703, 3702,   26,   27,  517,  516
  8,  769,  770, 3704, 3703,   27,   28,  518,  517
  9,  770,  771, 3705, 3704,   28,   29,  519,  518
 10,  771,  772, 3706, 3705,   29,   30,  520,  519
 11,  772,  773, 3707, 3706,   30,   31,  521,  520
 12,  773,  774, 3708, 3707,   31,   32,  522,  521
 13,  774,  775, 3709, 3708,   32,   33,  523,  522
 14,  775,  776, 3710, 3709,   33,   34,  524,  523
 15,  776,  777, 3711, 3710,   34,   35,  525,  524
 16,  777,  778, 3712, 3711,   35,   36,  526,  525
 17,  778,  779, 3713, 3712,   36,   37,  527,  526
 18,  779,  780, 3714, 3713,   37,   38,  528,  527
 19,  780,  781, 3715, 3714,   38,   39,  529,  528
 20,  781,  782, 3716, 3715,   39,   40,  530,  529
** ... 5604 like lines cut
*Nset, nset=Set-2, generate
    1,  7440,     1
*Elset, elset=Set-2, generate
    1,  5624,     1
** Section: Section-1
*Solid Section, elset=Set-2, material=Steel
,
*End Instance
**  
*Elset, elset=Element, instance=Steel-1, generate
   1,  640,    1
*Nset, nset=Set-3, instance=Steel-1
    3,    6,    9,   10,   11,   12,   16,   19,  195,  196,  197,  214,  215,  216,  243,  244
  245,  259,  260,  261,  262,  263,  264,  265,  266,  267,  268,  269,  270,  271,  272,  273
  274,  275,  276,  277,  278,  279,  280,  281,  282,  283,  284,  285,  286,  287,  288,  289
  290,  291,  292,  293,  294,  295,  296,  297,  298,  299,  300,  301,  302,  303,  304,  305
  306,  307,  308,  309,  310,  311,  312,  313,  314,  315,  316,  317,  318,  319,  320,  321
  322,  323,  324,  325,  326,  327,  328,  329,  330,  331,  332,  333,  334,  335,  336,  502
  503,  504, 2089, 2090, 2091, 2092, 2093, 2094, 2095, 2096, 2097, 2098, 2099, 2100, 2101, 2102
 2103, 2104, 2105, 2106, 2107, 2108, 2109, 2110, 2111, 2112, 2113, 2114, 2115, 2116, 2117, 2118
 2119, 2120, 2121, 2122, 2123, 2124, 2125, 2126, 2127, 2128, 2129, 2130, 2131, 2132, 2133, 2134
 2135, 2136, 2137, 2138, 2139, 2140, 2141, 2142, 2143, 2144, 2145, 2146, 2147, 2148, 2149, 2150
 2151, 2152, 2153, 2154, 2155, 2156, 2157, 2158, 2159, 2160, 2161, 2162, 2163, 2164, 2165, 2166
 2167, 2168, 2169, 2170, 2171, 2172, 2173, 2174, 2175, 2176, 2177, 2178, 2179, 2180, 2181, 2182
 2183, 2184, 2185, 2186, 2187, 2188, 2189, 2190, 2191, 2192, 2193, 2194, 2195, 2196, 2197, 2198
 2199, 2200, 2201, 2202, 2203, 2204, 2205
*Elset, elset=Set-3, instance=Steel-1
  160,  320,  480,  640,  693,  694,  695,  696,  749,  750,  751,  752,  805,  806,  807,  808
  861,  862,  863,  864,  917,  918,  919,  920,  973,  974,  975,  976, 1029, 1030, 1031, 1032
 1085, 1086, 1087, 1088, 1141, 1142, 1143, 1144, 1197, 1198, 1199, 1200, 1253, 1254, 1255, 1256
 1309, 1310, 1311, 1312, 1365, 1366, 1367, 1368, 1421, 1422, 1423, 1424, 1477, 1478, 1479, 1480
 1533, 1534, 1535, 1536, 1589, 1590, 1591, 1592, 1645, 1646, 1647, 1648, 1701, 1702, 1703, 1704
 1757, 1758, 1759, 1760, 1813, 1814, 1815, 1816, 1869, 1870, 1871, 1872, 1925, 1926, 1927, 1928
 1981, 1982, 1983, 1984, 2037, 2038, 2039, 2040, 2093, 2094, 2095, 2096, 2149, 2150, 2151, 2152
 2205, 2206, 2207, 2208, 2261, 2262, 2263, 2264, 2317, 2318, 2319, 2320, 2373, 2374, 2375, 2376
 2429, 2430, 2431, 2432, 2485, 2486, 2487, 2488, 2541, 2542, 2543, 2544, 2597, 2598, 2599, 2600
 2653, 2654, 2655, 2656, 2709, 2710, 2711, 2712, 2765, 2766, 2767, 2768, 2821, 2822, 2823, 2824
 2877, 2878, 2879, 2880, 2937, 2951, 3553, 3623, 3637, 4239, 4309, 4323, 4925, 4995, 5009, 5611
*Nset, nset=Set-6, instance=Steel-1
    1,    2,    3,    4,    5,    6,    7,    8,   21,   22,   23,   24,   25,   26,   27,   28
   29,   30,   31,   32,   33,   34,   35,   36,   37,   38,   39,   40,   41,   42,   43,   44
   45,   46,   47,   48,   49,   50,   51,   52,   53,   54,   55,   56,   57,   58,   59,   60
   61,   62,   63,   64,   65,   66,   67,   68,   69,   70,   71,   72,   73,   74,   75,   76
   77,   78,   79,   80,   81,   82,   83,   84,   85,   86,   87,   88,   89,   90,   91,   92
   93,   94,   95,   96,   97,   98,   99,  100,  101,  102,  103,  104,  105,  106,  107,  108
  109,  110,  111,  112,  113,  114,  115,  116,  117,  118,  119,  120,  121,  122,  123,  124
  125,  126,  127,  128,  129,  130,  131,  132,  133,  134,  135,  136,  137,  138,  139,  140
  141,  142,  143,  144,  145,  146,  147,  148,  149,  150,  151,  152,  153,  154,  155,  156
  157,  158,  159,  160,  161,  162,  163,  164,  165,  166,  167,  168,  169,  170,  171,  172
  173,  174,  175,  176,  177,  178,  179,  180,  181,  182,  183,  184,  185,  186,  187,  188
  189,  190,  191,  192,  193,  194,  195,  196,  197,  198,  199,  200,  511,  512,  513,  514
  515,  516,  517,  518,  519,  520,  521,  522,  523,  524,  525,  526,  527,  528,  529,  530
  531,  532,  533,  534,  535,  536,  537,  538,  539,  540,  541,  542,  543,  544,  545,  546
  547,  548,  549,  550,  551,  552,  553,  554,  555,  556,  557,  558,  559,  560,  561,  562
  563,  564,  565,  566,  567,  568,  569,  570,  571,  572,  573,  574,  575,  576,  577,  578
  579,  580,  581,  582,  583,  584,  585,  586,  587,  588,  589,  590,  591,  592,  593,  594
  595,  596,  597,  598,  599,  600,  601,  602,  603,  604,  605,  606,  607,  608,  609,  610
  611,  612,  613,  614,  615,  616,  617,  618,  619,  620,  621,  622,  623,  624,  625,  626
  627,  628,  629,  630,  631,  632,  633,  634,  635,  636,  637,  638,  639,  640,  641,  642
** ... 45 like lines cut
*Elset, elset=Set-6, instance=Steel-1, generate
   1,  640,    1
*Nset, nset=Set-7, instance=Steel-1
    1,    2,    3,    4,    5,    6,    7,    8,   21,   22,   23,   24,   25,   26,   27,   28
   29,   30,   31,   32,   33,   34,   35,   36,   37,   38,   39,   40,   41,   42,   43,   44
   45,   46,   47,   48,   49,   50,   51,   52,   53,   54,   55,   56,   57,   58,   59,   60
   61,   62,   63,   64,   65,   66,   67,   68,   69,   70,   71,   72,   73,   74,   75,   76
   77,   78,   79,   80,   81,   82,   83,   84,   85,   86,   87,   88,   89,   90,   91,   92
   93,   94,   95,   96,   97,   98,   99,  100,  101,  102,  103,  104,  105,  106,  107,  108
  109,  110,  111,  112,  113,  114,  115,  116,  117,  118,  119,  120,  121,  122,  123,  124
  125,  126,  127,  128,  129,  130,  131,  132,  133,  134,  135,  136,  137,  138,  139,  140
  141,  142,  143,  144,  145,  146,  147,  148,  149,  150,  151,  152,  153,  154,  155,  156
  157,  158,  159,  160,  161,  162,  163,  164,  165,  166,  167,  168,  169,  170,  171,  172
  173,  174,  175,  176,  177,  178,  179,  180,  181,  182,  183,  184,  185,  186,  187,  188
  189,  190,  191,  192,  193,  194,  195,  196,  197,  198,  199,  200,  511,  512,  513,  514
  515,  516,  517,  518,  519,  520,  521,  522,  523,  524,  525,  526,  527,  528,  529,  530
  531,  532,  533,  534,  535,  536,  537,  538,  539,  540,  541,  542,  543,  544,  545,  546
  547,  548,  549,  550,  551,  552,  553,  554,  555,  556,  557,  558,  559,  560,  561,  562
  563,  564,  565,  566,  567,  568,  569,  570,  571,  572,  573,  574,  575,  576,  577,  578
  579,  580,  581,  582,  583,  584,  585,  586,  587,  588,  589,  590,  591,  592,  593,  594
  595,  596,  597,  598,  599,  600,  601,  602,  603,  604,  605,  606,  607,  608,  609,  610
  611,  612,  613,  614,  615,  616,  617,  618,  619,  620,  621,  622,  623,  624,  625,  626
  627,  628,  629,  630,  631,  632,  633,  634,  635,  636,  637,  638,  639,  640,  641,  642
** ... 45 like lines cut
*Elset, elset=Set-7, instance=Steel-1, generate
   1,  640,    1
*Nset, nset=Set-10, instance=Steel-1
    1,    2,    3,    4,    5,    6,    7,    8,   21,   22,   23,   24,   25,   26,   27,   28
   29,   30,   31,   32,   33,   34,   35,   36,   37,   38,   39,   40,   41,   42,   43,   44
   45,   46,   47,   48,   49,   50,   51,   52,   53,   54,   55,   56,   57,   58,   59,   60
   61,   62,   63,   64,   65,   66,   67,   68,   69,   70,   71,   72,   73,   74,   75,   76
   77,   78,   79,   80,   81,   82,   83,   84,   85,   86,   87,   88,   89,   90,   91,   92
   93,   94,   95,   96,   97,   98,   99,  100,  101,  102,  103,  104,  105,  106,  107,  108
  109,  110,  111,  112,  113,  114,  115,  116,  117,  118,  119,  120,  121,  122,  123,  124
  125,  126,  127,  128,  129,  130,  131,  132,  133,  134,  135,  136,  137,  138,  139,  140
  141,  142,  143,  144,  145,  146,  147,  148,  149,  150,  151,  152,  153,  154,  155,  156
  157,  158,  159,  160,  161,  162,  163,  164,  165,  166,  167,  168,  169,  170,  171,  172
  173,  174,  175,  176,  177,  178,  179,  180,  181,  182,  183,  184,  185,  186,  187,  188
  189,  190,  191,  192,  193,  194,  195,  196,  197,  198,  199,  200,  511,  512,  513,  514
  515,  516,  517,  518,  519,  520,  521,  522,  523,  524,  525,  526,  527,  528,  529,  530
  531,  532,  533,  534,  535,  536,  537,  538,  539,  540,  541,  542,  543,  544,  545,  546
  547,  548,  549,  550,  551,  552,  553,  554,  555,  556,  557,  558,  559,  560,  561,  562
  563,  564,  565,  566,  567,  568,  569,  570,  571,  572,  573,  574,  575,  576,  577,  578
  579,  580,  581,  582,  583,  584,  585,  586,  587,  588,  589,  590,  591,  592,  593,  594
  595,  596,  597,  598,  599,  600,  601,  602,  603,  604,  605,  606,  607,  608,  609,  610
  611,  612,  613,  614,  615,  616,  617,  618,  619,  620,  621,  622,  623,  624,  625,  626
  627,  628,  629,  630,  631,  632,  633,  634,  635,  636,  637,  638,  639,  640,  641,  642
** ... 45 like lines cut
*Elset, elset=Set-10, instance=Steel-1, generate
   1,  640,    1
*Nset, nset=Set-12, instance=Steel-1, generate
    1,  7440,     1
*Elset, elset=Set-12, instance=Steel-1, generate
    1,  5624,     1
*Elset, elset=_Surf-1_S5, internal, instance=Steel-1
  693,  694,  695,  696,  749,  750,  751,  752,  805,  806,  807,  808,  861,  862,  863,  864
  917,  918,  919,  920,  973,  974,  975,  976, 1029, 1030, 1031, 1032, 1085, 1086, 1087, 1088
 1141, 1142, 1143, 1144, 1197, 1198, 1199, 1200, 1253, 1254, 1255, 1256, 1309, 1310, 1311, 1312
 1365, 1366, 1367, 1368, 1421, 1422, 1423, 1424, 1477, 1478, 1479, 1480, 1533, 1534, 1535, 1536
 1589, 1590, 1591, 1592, 1645, 1646, 1647, 1648, 1701, 1702, 1703, 1704, 1757, 1758, 1759, 1760
 1813, 1814, 1815, 1816, 1869, 1870, 1871, 1872, 1925, 1926, 1927, 1928, 1981, 1982, 1983, 1984
 2037, 2038, 2039, 2040, 2093, 2094, 2095, 2096, 2149, 2150, 2151, 2152, 2205, 2206, 2207, 2208
 2261, 2262, 2263, 2264, 2317, 2318, 2319, 2320, 2373, 2374, 2375, 2376, 2429, 2430, 2431, 2432
 2485, 2486, 2487, 2488, 2541, 2542, 2543, 2544, 2597, 2598, 2599, 2600, 2653, 2654, 2655, 2656
 2709, 2710, 2711, 2712, 2765, 2766, 2767, 2768, 2821, 2822, 2823, 2824, 2877, 2878, 2879, 2880
*Surface, type=ELEMENT, name=Surf-1
_Surf-1_S5, S5
*Elset, elset=_Surf-6_S1, internal, instance=Steel-1
  481,  482,  483,  484,  485,  486,  487,  488,  489,  490,  491,  492,  493,  494,  495,  496
  497,  498,  499,  500,  501,  502,  503,  504,  505,  506,  507,  508,  509,  510,  511,  512
  513,  514,  515,  516,  517,  518,  519,  520,  521,  522,  523,  524,  525,  526,  527,  528
  529,  530,  531,  532,  533,  534,  535,  536,  537,  538,  539,  540,  541,  542,  543,  544
  545,  546,  547,  548,  549,  550,  551,  552,  553,  554,  555,  556,  557,  558,  559,  560
  561,  562,  563,  564,  565,  566,  567,  568,  569,  570,  571,  572,  573,  574,  575,  576
  577,  578,  579,  580,  581,  582,  583,  584,  585,  586,  587,  588,  589,  590,  591,  592
  593,  594,  595,  596,  597,  598,  599,  600,  601,  602,  603,  604,  605,  606,  607,  608
  609,  610,  611,  612,  613,  614,  615,  616,  617,  618,  619,  620,  621,  622,  623,  624
  625,  626,  627,  628,  629,  630,  631,  632,  633,  634,  635,  636,  637,  638,  639,  640
 2825, 2826, 2827, 2828, 2829, 2830, 2831, 2832, 2833, 2834, 2835, 2836, 2837, 2838, 2839, 2840
 2841, 2842, 2843, 2844, 2845, 2846, 2847, 2848, 2849, 2850, 2851, 2852, 2853, 2854, 2855, 2856
 2857, 2858, 2859, 2860, 2861, 2862, 2863, 2864, 2865, 2866, 2867, 2868, 2869, 2870, 2871, 2872
 2873, 2874, 2875, 2876, 2877, 2878, 2879, 2880, 4939, 4940, 4941, 4942, 4943, 4944, 4945, 4946
 4947, 4948, 4949, 4950, 4951, 4952, 4953, 4954, 4955, 4956, 4957, 4958, 4959, 4960, 4961, 4962
 4963, 4964, 4965, 4966, 4967, 4968, 4969, 4970, 4971, 4972, 4973, 4974, 4975, 4976, 4977, 4978
 4979, 4980, 4981, 4982, 4983, 4984, 4985, 4986, 4987, 4988, 4989, 4990, 4991, 4992, 4993, 4994
 4995, 4996, 4997, 4998, 4999, 5000, 5001, 5002, 5003, 5004, 5005, 5006, 5007, 5008, 5009, 5010
 5011, 5012, 5013, 5014, 5015, 5016, 5017, 5018, 5019, 5020, 5021, 5022, 5023, 5024, 5025, 5026
 5027, 5028, 5029, 5030, 5031, 5032, 5033, 5034, 5035, 5036, 5037, 5038, 5039, 5040, 5041, 5042
** ... 37 like lines cut
*Elset, elset=_Surf-6_S6, internal, instance=Steel-1
    1,   41,   81,  121,  161,  201,  241,  281,  321,  361,  401,  441,  481,  521,  561,  601
  641,  645,  649,  653,  657,  661,  665,  669,  673,  677,  681,  685,  689,  693,  697,  701
  705,  709,  713,  717,  721,  725,  729,  733,  737,  741,  745,  749,  753,  757,  761,  765
  769,  773,  777,  781,  785,  789,  793,  797,  801,  805,  809,  813,  817,  821,  825,  829
  833,  837,  841,  845,  849,  853,  857,  861,  865,  869,  873,  877,  881,  885,  889,  893
  897,  901,  905,  909,  913,  917,  921,  925,  929,  933,  937,  941,  945,  949,  953,  957
  961,  965,  969,  973,  977,  981,  985,  989,  993,  997, 1001, 1005, 1009, 1013, 1017, 1021
 1025, 1029, 1033, 1037, 1041, 1045, 1049, 1053, 1057, 1061, 1065, 1069, 1073, 1077, 1081, 1085
 1089, 1093, 1097, 1101, 1105, 1109, 1113, 1117, 1121, 1125, 1129, 1133, 1137, 1141, 1145, 1149
 1153, 1157, 1161, 1165, 1169, 1173, 1177, 1181, 1185, 1189, 1193, 1197, 1201, 1205, 1209, 1213
 1217, 1221, 1225, 1229, 1233, 1237, 1241, 1245, 1249, 1253, 1257, 1261, 1265, 1269, 1273, 1277
 1281, 1285, 1289, 1293, 1297, 1301, 1305, 1309, 1313, 1317, 1321, 1325, 1329, 1333, 1337, 1341
 1345, 1349, 1353, 1357, 1361, 1365, 1369, 1373, 1377, 1381, 1385, 1389, 1393, 1397, 1401, 1405
 1409, 1413, 1417, 1421, 1425, 1429, 1433, 1437, 1441, 1445, 1449, 1453, 1457, 1461, 1465, 1469
 1473, 1477, 1481, 1485, 1489, 1493, 1497, 1501, 1505, 1509, 1513, 1517, 1521, 1525, 1529, 1533
 1537, 1541, 1545, 1549, 1553, 1557, 1561, 1565, 1569, 1573, 1577, 1581, 1585, 1589, 1593, 1597
 1601, 1605, 1609, 1613, 1617, 1621, 1625, 1629, 1633, 1637, 1641, 1645, 1649, 1653, 1657, 1661
 1665, 1669, 1673, 1677, 1681, 1685, 1689, 1693, 1697, 1701, 1705, 1709, 1713, 1717, 1721, 1725
 1729, 1733, 1737, 1741, 1745, 1749, 1753, 1757, 1761, 1765, 1769, 1773, 1777, 1781, 1785, 1789
 1793, 1797, 1801, 1805, 1809, 1813, 1817, 1821, 1825, 1829, 1833, 1837, 1841, 1845, 1849, 1853
** ... 19 like lines cut
*Elset, elset=_Surf-6_S2, internal, instance=Steel-1
    1,    2,    3,    4,    5,    6,    7,    8,    9,   10,   11,   12,   13,   14,   15,   16
   17,   18,   19,   20,   21,   22,   23,   24,   25,   26,   27,   28,   29,   30,   31,   32
   33,   34,   35,   36,   37,   38,   39,   40,   41,   42,   43,   44,   45,   46,   47,   48
   49,   50,   51,   52,   53,   54,   55,   56,   57,   58,   59,   60,   61,   62,   63,   64
   65,   66,   67,   68,   69,   70,   71,   72,   73,   74,   75,   76,   77,   78,   79,   80
   81,   82,   83,   84,   85,   86,   87,   88,   89,   90,   91,   92,   93,   94,   95,   96
   97,   98,   99,  100,  101,  102,  103,  104,  105,  106,  107,  108,  109,  110,  111,  112
  113,  114,  115,  116,  117,  118,  119,  120,  121,  122,  123,  124,  125,  126,  127,  128
  129,  130,  131,  132,  133,  134,  135,  136,  137,  138,  139,  140,  141,  142,  143,  144
  145,  146,  147,  148,  149,  150,  151,  152,  153,  154,  155,  156,  157,  158,  159,  160
  641,  642,  643,  644,  645,  646,  647,  648,  649,  650,  651,  652,  653,  654,  655,  656
  657,  658,  659,  660,  661,  662,  663,  664,  665,  666,  667,  668,  669,  670,  671,  672
  673,  674,  675,  676,  677,  678,  679,  680,  681,  682,  683,  684,  685,  686,  687,  688
  689,  690,  691,  692,  693,  694,  695,  696, 2881, 2882, 2883, 2884, 2885, 2886, 2887, 2888
 2889, 2890, 2891, 2892, 2893, 2894, 2895, 2896, 2897, 2898, 2899, 2900, 2901, 2902, 2903, 2904
 2905, 2906, 2907, 2908, 2909, 2910, 2911, 2912, 2913, 2914, 2915, 2916, 2917, 2918, 2919, 2920
 2921, 2922, 2923, 2924, 2925, 2926, 2927, 2928, 2929, 2930, 2931, 2932, 2933, 2934, 2935, 2936
 2937, 2938, 2939, 2940, 2941, 2942, 2943, 2944, 2945, 2946, 2947, 2948, 2949, 2950, 2951, 2952
 2953, 2954, 2955, 2956, 2957, 2958, 2959, 2960, 2961, 2962, 2963, 2964, 2965, 2966, 2967, 2968
 2969, 2970, 2971, 2972, 2973, 2974, 2975, 2976, 2977, 2978, 2979, 2980, 2981, 2982, 2983, 2984
** ... 37 like lines cut
*Elset, elset=_Surf-6_S5, internal, instance=Steel-1
  693,  694,  695,  696,  749,  750,  751,  752,  805,  806,  807,  808,  861,  862,  863,  864
  917,  918,  919,  920,  973,  974,  975,  976, 1029, 1030, 1031, 1032, 1085, 1086, 1087, 1088
 1141, 1142, 1143, 1144, 1197, 1198, 1199, 1200, 1253, 1254, 1255, 1256, 1309, 1310, 1311, 1312
 1365, 1366, 1367, 1368, 1421, 1422, 1423, 1424, 1477, 1478, 1479, 1480, 1533, 1534, 1535, 1536
 1589, 1590, 1591, 1592, 1645, 1646, 1647, 1648, 1701, 1702, 1703, 1704, 1757, 1758, 1759, 1760
 1813, 1814, 1815, 1816, 1869, 1870, 1871, 1872, 1925, 1926, 1927, 1928, 1981, 1982, 1983, 1984
 2037, 2038, 2039, 2040, 2093, 2094, 2095, 2096, 2149, 2150, 2151, 2152, 2205, 2206, 2207, 2208
 2261, 2262, 2263, 2264, 2317, 2318, 2319, 2320, 2373, 2374, 2375, 2376, 2429, 2430, 2431, 2432
 2485, 2486, 2487, 2488, 2541, 2542, 2543, 2544, 2597, 2598, 2599, 2600, 2653, 2654, 2655, 2656
 2709, 2710, 2711, 2712, 2765, 2766, 2767, 2768, 2821, 2822, 2823, 2824, 2877, 2878, 2879, 2880
 3553, 3554, 3555, 3556, 3557, 3558, 3559, 3560, 3561, 3562, 3563, 3564, 3565, 3566, 4239, 4240
 4241, 4242, 4243, 4244, 4245, 4246, 4247, 4248, 4249, 4250, 4251, 4252, 4925, 4926, 4927, 4928
 4929, 4930, 4931, 4932, 4933, 4934, 4935, 4936, 4937, 4938, 5611, 5612, 5613, 5614, 5615, 5616
 5617, 5618, 5619, 5620, 5621, 5622, 5623, 5624
*Elset, elset=_Surf-6_S4, internal, instance=Steel-1
   40,   80,  120,  160,  200,  240,  280,  320,  360,  400,  440,  480,  520,  560,  600,  640
  644,  648,  652,  656,  660,  664,  668,  672,  676,  680,  684,  688,  692,  696,  700,  704
  708,  712,  716,  720,  724,  728,  732,  736,  740,  744,  748,  752,  756,  760,  764,  768
  772,  776,  780,  784,  788,  792,  796,  800,  804,  808,  812,  816,  820,  824,  828,  832
  836,  840,  844,  848,  852,  856,  860,  864,  868,  872,  876,  880,  884,  888,  892,  896
  900,  904,  908,  912,  916,  920,  924,  928,  932,  936,  940,  944,  948,  952,  956,  960
  964,  968,  972,  976,  980,  984,  988,  992,  996, 1000, 1004, 1008, 1012, 1016, 1020, 1024
 1028, 1032, 1036, 1040, 1044, 1048, 1052, 1056, 1060, 1064, 1068, 1072, 1076, 1080, 1084, 1088
 1092, 1096, 1100, 1104, 1108, 1112, 1116, 1120, 1124, 1128, 1132, 1136, 1140, 1144, 1148, 1152
 1156, 1160, 1164, 1168, 1172, 1176, 1180, 1184, 1188, 1192, 1196, 1200, 1204, 1208, 1212, 1216
 1220, 1224, 1228, 1232, 1236, 1240, 1244, 1248, 1252, 1256, 1260, 1264, 1268, 1272, 1276, 1280
 1284, 1288, 1292, 1296, 1300, 1304, 1308, 1312, 1316, 1320, 1324, 1328, 1332, 1336, 1340, 1344
 1348, 1352, 1356, 1360, 1364, 1368, 1372, 1376, 1380, 1384, 1388, 1392, 1396, 1400, 1404, 1408
 1412, 1416, 1420, 1424, 1428, 1432, 1436, 1440, 1444, 1448, 1452, 1456, 1460, 1464, 1468, 1472
 1476, 1480, 1484, 1488, 1492, 1496, 1500, 1504, 1508, 1512, 1516, 1520, 1524, 1528, 1532, 1536
 1540, 1544, 1548, 1552, 1556, 1560, 1564, 1568, 1572, 1576, 1580, 1584, 1588, 1592, 1596, 1600
 1604, 1608, 1612, 1616, 1620, 1624, 1628, 1632, 1636, 1640, 1644, 1648, 1652, 1656, 1660, 1664
 1668, 1672, 1676, 1680, 1684, 1688, 1692, 1696, 1700, 1704, 1708, 1712, 1716, 1720, 1724, 1728
 1732, 1736, 1740, 1744, 1748, 1752, 1756, 1760, 1764, 1768, 1772, 1776, 1780, 1784, 1788, 1792
 1796, 1800, 1804, 1808, 1812, 1816, 1820, 1824, 1828, 1832, 1836, 1840, 1844, 1848, 1852, 1856
** ... 29 like lines cut
*Elset, elset=_Surf-6_S3, internal, instance=Steel-1
 2881, 2882, 2883, 2884, 2885, 2886, 2887, 2888, 2889, 2890, 2891, 2892, 2893, 2894, 3567, 3568
 3569, 3570, 3571, 3572, 3573, 3574, 3575, 3576, 3577, 3578, 3579, 3580, 4253, 4254, 4255, 4256
 4257, 4258, 4259, 4260, 4261, 4262, 4263, 4264, 4265, 4266, 4939, 4940, 4941, 4942, 4943, 4944
 4945, 4946, 4947, 4948, 4949, 4950, 4951, 4952
*Surface, type=ELEMENT, name=Surf-6
_Surf-6_S1, S1
_Surf-6_S6, S6
_Surf-6_S2, S2
_Surf-6_S4, S4
_Surf-6_S5, S5
_Surf-6_S3, S3
*Elset, elset=_Surf-7_S1, internal, instance=Steel-1
  481,  482,  483,  484,  485,  486,  487,  488,  489,  490,  491,  492,  493,  494,  495,  496
  497,  498,  499,  500,  501,  502,  503,  504,  505,  506,  507,  508,  509,  510,  511,  512
  513,  514,  515,  516,  517,  518,  519,  520,  521,  522,  523,  524,  525,  526,  527,  528
  529,  530,  531,  532,  533,  534,  535,  536,  537,  538,  539,  540,  541,  542,  543,  544
  545,  546,  547,  548,  549,  550,  551,  552,  553,  554,  555,  556,  557,  558,  559,  560
  561,  562,  563,  564,  565,  566,  567,  568,  569,  570,  571,  572,  573,  574,  575,  576
  577,  578,  579,  580,  581,  582,  583,  584,  585,  586,  587,  588,  589,  590,  591,  592
  593,  594,  595,  596,  597,  598,  599,  600,  601,  602,  603,  604,  605,  606,  607,  608
  609,  610,  611,  612,  613,  614,  615,  616,  617,  618,  619,  620,  621,  622,  623,  624
  625,  626,  627,  628,  629,  630,  631,  632,  633,  634,  635,  636,  637,  638,  639,  640
 2825, 2826, 2827, 2828, 2829, 2830, 2831, 2832, 2833, 2834, 2835, 2836, 2837, 2838, 2839, 2840
 2841, 2842, 2843, 2844, 2845, 2846, 2847, 2848, 2849, 2850, 2851, 2852, 2853, 2854, 2855, 2856
 2857, 2858, 2859, 2860, 2861, 2862, 2863, 2864, 2865, 2866, 2867, 2868, 2869, 2870, 2871, 2872
 2873, 2874, 2875, 2876, 2877, 2878, 2879, 2880, 4939, 4940, 4941, 4942, 4943, 4944, 4945, 4946
 4947, 4948, 4949, 4950, 4951, 4952, 4953, 4954, 4955, 4956, 4957, 4958, 4959, 4960, 4961, 4962
 4963, 4964, 4965, 4966, 4967, 4968, 4969, 4970, 4971, 4972, 4973, 4974, 4975, 4976, 4977, 4978
 4979, 4980, 4981, 4982, 4983, 4984, 4985, 4986, 4987, 4988, 4989, 4990, 4991, 4992, 4993, 4994
 4995, 4996, 4997, 4998, 4999, 5000, 5001, 5002, 5003, 5004, 5005, 5006, 5007, 5008, 5009, 5010
 5011, 5012, 5013, 5014, 5015, 5016, 5017, 5018, 5019, 5020, 5021, 5022, 5023, 5024, 5025, 5026
 5027, 5028, 5029, 5030, 5031, 5032, 5033, 5034, 5035, 5036, 5037, 5038, 5039, 5040, 5041, 5042
** ... 37 like lines cut
*Elset, elset=_Surf-7_S6, internal, instance=Steel-1
    1,   41,   81,  121,  161,  201,  241,  281,  321,  361,  401,  441,  481,  521,  561,  601
  641,  645,  649,  653,  657,  661,  665,  669,  673,  677,  681,  685,  689,  693,  697,  701
  705,  709,  713,  717,  721,  725,  729,  733,  737,  741,  745,  749,  753,  757,  761,  765
  769,  773,  777,  781,  785,  789,  793,  797,  801,  805,  809,  813,  817,  821,  825,  829
  833,  837,  841,  845,  849,  853,  857,  861,  865,  869,  873,  877,  881,  885,  889,  893
  897,  901,  905,  909,  913,  917,  921,  925,  929,  933,  937,  941,  945,  949,  953,  957
  961,  965,  969,  973,  977,  981,  985,  989,  993,  997, 1001, 1005, 1009, 1013, 1017, 1021
 1025, 1029, 1033, 1037, 1041, 1045, 1049, 1053, 1057, 1061, 1065, 1069, 1073, 1077, 1081, 1085
 1089, 1093, 1097, 1101, 1105, 1109, 1113, 1117, 1121, 1125, 1129, 1133, 1137, 1141, 1145, 1149
 1153, 1157, 1161, 1165, 1169, 1173, 1177, 1181, 1185, 1189, 1193, 1197, 1201, 1205, 1209, 1213
 1217, 1221, 1225, 1229, 1233, 1237, 1241, 1245, 1249, 1253, 1257, 1261, 1265, 1269, 1273, 1277
 1281, 1285, 1289, 1293, 1297, 1301, 1305, 1309, 1313, 1317, 1321, 1325, 1329, 1333, 1337, 1341
 1345, 1349, 1353, 1357, 1361, 1365, 1369, 1373, 1377, 1381, 1385, 1389, 1393, 1397, 1401, 1405
 1409, 1413, 1417, 1421, 1425, 1429, 1433, 1437, 1441, 1445, 1449, 1453, 1457, 1461, 1465, 1469
 1473, 1477, 1481, 1485, 1489, 1493, 1497, 1501, 1505, 1509, 1513, 1517, 1521, 1525, 1529, 1533
 1537, 1541, 1545, 1549, 1553, 1557, 1561, 1565, 1569, 1573, 1577, 1581, 1585, 1589, 1593, 1597
 1601, 1605, 1609, 1613, 1617, 1621, 1625, 1629, 1633, 1637, 1641, 1645, 1649, 1653, 1657, 1661
 1665, 1669, 1673, 1677, 1681, 1685, 1689, 1693, 1697, 1701, 1705, 1709, 1713, 1717, 1721, 1725
 1729, 1733, 1737, 1741, 1745, 1749, 1753, 1757, 1761, 1765, 1769, 1773, 1777, 1781, 1785, 1789
 1793, 1797, 1801, 1805, 1809, 1813, 1817, 1821, 1825, 1829, 1833, 1837, 1841, 1845, 1849, 1853
** ... 19 like lines cut
*Elset, elset=_Surf-7_S2, internal, instance=Steel-1
    1,    2,    3,    4,    5,    6,    7,    8,    9,   10,   11,   12,   13,   14,   15,   16
   17,   18,   19,   20,   21,   22,   23,   24,   25,   26,   27,   28,   29,   30,   31,   32
   33,   34,   35,   36,   37,   38,   39,   40,   41,   42,   43,   44,   45,   46,   47,   48
   49,   50,   51,   52,   53,   54,   55,   56,   57,   58,   59,   60,   61,   62,   63,   64
   65,   66,   67,   68,   69,   70,   71,   72,   73,   74,   75,   76,   77,   78,   79,   80
   81,   82,   83,   84,   85,   86,   87,   88,   89,   90,   91,   92,   93,   94,   95,   96
   97,   98,   99,  100,  101,  102,  103,  104,  105,  106,  107,  108,  109,  110,  111,  112
  113,  114,  115,  116,  117,  118,  119,  120,  121,  122,  123,  124,  125,  126,  127,  128
  129,  130,  131,  132,  133,  134,  135,  136,  137,  138,  139,  140,  141,  142,  143,  144
  145,  146,  147,  148,  149,  150,  151,  152,  153,  154,  155,  156,  157,  158,  159,  160
  641,  642,  643,  644,  645,  646,  647,  648,  649,  650,  651,  652,  653,  654,  655,  656
  657,  658,  659,  660,  661,  662,  663,  664,  665,  666,  667,  668,  669,  670,  671,  672
  673,  674,  675,  676,  677,  678,  679,  680,  681,  682,  683,  684,  685,  686,  687,  688
  689,  690,  691,  692,  693,  694,  695,  696, 2881, 2882, 2883, 2884, 2885, 2886, 2887, 2888
 2889, 2890, 2891, 2892, 2893, 2894, 2895, 2896, 2897, 2898, 2899, 2900, 2901, 2902, 2903, 2904
 2905, 2906, 2907, 2908, 2909, 2910, 2911, 2912, 2913, 2914, 2915, 2916, 2917, 2918, 2919, 2920
 2921, 2922, 2923, 2924, 2925, 2926, 2927, 2928, 2929, 2930, 2931, 2932, 2933, 2934, 2935, 2936
 2937, 2938, 2939, 2940, 2941, 2942, 2943, 2944, 2945, 2946, 2947, 2948, 2949, 2950, 2951, 2952
 2953, 2954, 2955, 2956, 2957, 2958, 2959, 2960, 2961, 2962, 2963, 2964, 2965, 2966, 2967, 2968
 2969, 2970, 2971, 2972, 2973, 2974, 2975, 2976, 2977, 2978, 2979, 2980, 2981, 2982, 2983, 2984
** ... 37 like lines cut
*Elset, elset=_Surf-7_S5, internal, instance=Steel-1
  693,  694,  695,  696,  749,  750,  751,  752,  805,  806,  807,  808,  861,  862,  863,  864
  917,  918,  919,  920,  973,  974,  975,  976, 1029, 1030, 1031, 1032, 1085, 1086, 1087, 1088
 1141, 1142, 1143, 1144, 1197, 1198, 1199, 1200, 1253, 1254, 1255, 1256, 1309, 1310, 1311, 1312
 1365, 1366, 1367, 1368, 1421, 1422, 1423, 1424, 1477, 1478, 1479, 1480, 1533, 1534, 1535, 1536
 1589, 1590, 1591, 1592, 1645, 1646, 1647, 1648, 1701, 1702, 1703, 1704, 1757, 1758, 1759, 1760
 1813, 1814, 1815, 1816, 1869, 1870, 1871, 1872, 1925, 1926, 1927, 1928, 1981, 1982, 1983, 1984
 2037, 2038, 2039, 2040, 2093, 2094, 2095, 2096, 2149, 2150, 2151, 2152, 2205, 2206, 2207, 2208
 2261, 2262, 2263, 2264, 2317, 2318, 2319, 2320, 2373, 2374, 2375, 2376, 2429, 2430, 2431, 2432
 2485, 2486, 2487, 2488, 2541, 2542, 2543, 2544, 2597, 2598, 2599, 2600, 2653, 2654, 2655, 2656
 2709, 2710, 2711, 2712, 2765, 2766, 2767, 2768, 2821, 2822, 2823, 2824, 2877, 2878, 2879, 2880
 3553, 3554, 3555, 3556, 3557, 3558, 3559, 3560, 3561, 3562, 3563, 3564, 3565, 3566, 4239, 4240
 4241, 4242, 4243, 4244, 4245, 4246, 4247, 4248, 4249, 4250, 4251, 4252, 4925, 4926, 4927, 4928
 4929, 4930, 4931, 4932, 4933, 4934, 4935, 4936, 4937, 4938, 5611, 5612, 5613, 5614, 5615, 5616
 5617, 5618, 5619, 5620, 5621, 5622, 5623, 5624
*Elset, elset=_Surf-7_S4, internal, instance=Steel-1
   40,   80,  120,  160,  200,  240,  280,  320,  360,  400,  440,  480,  520,  560,  600,  640
  644,  648,  652,  656,  660,  664,  668,  672,  676,  680,  684,  688,  692,  696,  700,  704
  708,  712,  716,  720,  724,  728,  732,  736,  740,  744,  748,  752,  756,  760,  764,  768
  772,  776,  780,  784,  788,  792,  796,  800,  804,  808,  812,  816,  820,  824,  828,  832
  836,  840,  844,  848,  852,  856,  860,  864,  868,  872,  876,  880,  884,  888,  892,  896
  900,  904,  908,  912,  916,  920,  924,  928,  932,  936,  940,  944,  948,  952,  956,  960
  964,  968,  972,  976,  980,  984,  988,  992,  996, 1000, 1004, 1008, 1012, 1016, 1020, 1024
 1028, 1032, 1036, 1040, 1044, 1048, 1052, 1056, 1060, 1064, 1068, 1072, 1076, 1080, 1084, 1088
 1092, 1096, 1100, 1104, 1108, 1112, 1116, 1120, 1124, 1128, 1132, 1136, 1140, 1144, 1148, 1152
 1156, 1160, 1164, 1168, 1172, 1176, 1180, 1184, 1188, 1192, 1196, 1200, 1204, 1208, 1212, 1216
 1220, 1224, 1228, 1232, 1236, 1240, 1244, 1248, 1252, 1256, 1260, 1264, 1268, 1272, 1276, 1280
 1284, 1288, 1292, 1296, 1300, 1304, 1308, 1312, 1316, 1320, 1324, 1328, 1332, 1336, 1340, 1344
 1348, 1352, 1356, 1360, 1364, 1368, 1372, 1376, 1380, 1384, 1388, 1392, 1396, 1400, 1404, 1408
 1412, 1416, 1420, 1424, 1428, 1432, 1436, 1440, 1444, 1448, 1452, 1456, 1460, 1464, 1468, 1472
 1476, 1480, 1484, 1488, 1492, 1496, 1500, 1504, 1508, 1512, 1516, 1520, 1524, 1528, 1532, 1536
 1540, 1544, 1548, 1552, 1556, 1560, 1564, 1568, 1572, 1576, 1580, 1584, 1588, 1592, 1596, 1600
 1604, 1608, 1612, 1616, 1620, 1624, 1628, 1632, 1636, 1640, 1644, 1648, 1652, 1656, 1660, 1664
 1668, 1672, 1676, 1680, 1684, 1688, 1692, 1696, 1700, 1704, 1708, 1712, 1716, 1720, 1724, 1728
 1732, 1736, 1740, 1744, 1748, 1752, 1756, 1760, 1764, 1768, 1772, 1776, 1780, 1784, 1788, 1792
 1796, 1800, 1804, 1808, 1812, 1816, 1820, 1824, 1828, 1832, 1836, 1840, 1844, 1848, 1852, 1856
** ... 29 like lines cut
*Elset, elset=_Surf-7_S3, internal, instance=Steel-1
 2881, 2882, 2883, 2884, 2885, 2886, 2887, 2888, 2889, 2890, 2891, 2892, 2893, 2894, 3567, 3568
 3569, 3570, 3571, 3572, 3573, 3574, 3575, 3576, 3577, 3578, 3579, 3580, 4253, 4254, 4255, 4256
 4257, 4258, 4259, 4260, 4261, 4262, 4263, 4264, 4265, 4266, 4939, 4940, 4941, 4942, 4943, 4944
 4945, 4946, 4947, 4948, 4949, 4950, 4951, 4952
*Surface, type=ELEMENT, name=Surf-7
_Surf-7_S1, S1
_Surf-7_S6, S6
_Surf-7_S2, S2
_Surf-7_S4, S4
_Surf-7_S5, S5
_Surf-7_S3, S3
*End Assembly
** 
** MATERIALS
** 
*Material, name=Steel
*Conductivity
 25.956, 19.135
 25.956, 51.135
 27.022, 99.099
 
*Density
7800.,
*Elastic
 2.16e+11, 0.29956,  21.279
 
*Expansion
 1.04e-05, 17.653
 
*Latent Heat
260000.,0.,0.
*Plastic
    4.87e+08,       0.,   20.377
    4.92e+08,  0.00128,   20.377
    4.97e+08,  0.00257,   20.377
    5.02e+08,  0.00385,   20.377
    5.07e+08,  0.00514,   20.377
    5.12e+08,  0.00642,   20.377
    5.17e+08,   0.0077,   20.377
    5.22e+08,  0.00899,   20.377
    5.27e+08,   0.0103,   20.377
    5.32e+08,   0.0116,   20.377
    5.37e+08,   0.0128,   20.377
    5.42e+08,   0.0141,   20.377
    5.47e+08,   0.0154,   20.377
    5.52e+08,   0.0167,   20.377
    5.57e+08,    0.018,   20.377
    5.62e+08,   0.0193,   20.377
    5.67e+08,   0.0205,   20.377
    5.72e+08,   0.0218,   20.377
    5.77e+08,   0.0231,   20.377
    5.82e+08,   0.0244,   20.377
    5.85e+08,   0.0252,   20.377
*Specific Heat
 417.78, 21.861
 462.22, 49.846
** 
** PHYSICAL CONSTANTS
** 
*Physical Constants, absolute zero=0, stefan boltzmann=0
** 
** PREDEFINED FIELDS
** 
** Name: Predefined Field-1   Type: Temperature
*Initial Conditions, type=TEMPERATURE
Set-12, 25.
** ----------------------------------------------------------------
** 
** STEP: Step-1
** 
*Step, name=Step-1, nlgeom=NO, inc=10000
*Heat Transfer, end=PERIOD, deltmx=50.
1e-05, 1e-05, 1e-10, 1e-05, 
** 
** INTERACTIONS
** 
** Interaction: Int-1
*Model Change, remove
Element, 
** 
** OUTPUT REQUESTS
** 
*Restart, write, frequency=0
** 
** FIELD OUTPUT: F-Output-1
** 
*Output, field
*Node Output
NT, 
*Element Output, directions=YES
HFL, TEMP
** 
** HISTORY OUTPUT: H-Output-1
** 
*Output, history
*Element Output, elset=Element
TEMP, 
*End Step
** ----------------------------------------------------------------
** 
** STEP: Step-2
** 
*Step, name=Step-2, nlgeom=NO, inc=10000
*Heat Transfer, end=PERIOD, deltmx=50.
1e-05, 1e-05, 1e-10, 1e-05, 
** 
** INTERACTIONS
** 
** Interaction: Int-2
*Model Change, add
Element, 
** 
** OUTPUT REQUESTS
** 
*Restart, write, frequency=0
** 
** FIELD OUTPUT: F-Output-2
** 
*Output, field
*Node Output
NT, RFL
*Element Output, directions=YES
HFL, TEMP
*Radiation Output
FTEMP, 
** 
** HISTORY OUTPUT: H-Output-1
** 
*Output, history
*Element Output, elset=Element
TEMP, 
*End Step
** ----------------------------------------------------------------
** 
** STEP: Step-3
** 
*Step, name=Step-3, nlgeom=NO, inc=100000
*Heat Transfer, end=PERIOD, deltmx=50.
0.1, 20., 0.0002, 20., 
** 
** LOADS
** 
** Name: Load-1   Type: Body heat flux
*Dflux
Set-10, BFNU, 2.
** 
** OUTPUT REQUESTS
** 
*Restart, write, frequency=0
** 
** FIELD OUTPUT: F-Output-3
** 
*Output, field
*Node Output
NT, RFL
*Element Output, directions=YES
HFL, TEMP
** 
** HISTORY OUTPUT: H-Output-1
** 
*Output, history
*Element Output, elset=Element
TEMP, 
*End Step
** ----------------------------------------------------------------
** 
** STEP: Step-4
** 
*Step, name=Step-4, nlgeom=NO, inc=100000
*Heat Transfer, end=PERIOD, deltmx=50.
0.1, 400., 0.004, 400., 
** 
** INTERACTIONS
** 
** Interaction: Int-3
*Sfilm
Surf-6, F, 25., 5.
** Interaction: Int-4
*Sradiate
Surf-7, R, 25., 0.78
** 
** OUTPUT REQUESTS
** 
*Restart, write, frequency=0
** 
** FIELD OUTPUT: F-Output-4
** 
*Output, field
*Node Output
NT, RFL
*Element Output, directions=YES
HFL, TEMP
** 
** HISTORY OUTPUT: H-Output-1
** 
*Output, history
*Element Output, elset=Element
TEMP, 
*End Step
